Circuit: * J:\Julia\Documentos\SpaceBee\Electronics\Power\BreakBoard\BreakBoard2.asc

WARNING: Specified period is not longer than the sum of Trise, Tfall, and Ton for v8.  Increasing period to 30
WARNING: Specified period is not longer than the sum of Trise, Tfall, and Ton for v7.  Increasing period to 30
WARNING: Specified period is not longer than the sum of Trise, Tfall, and Ton for v6.  Increasing period to 30
WARNING: Specified period is not longer than the sum of Trise, Tfall, and Ton for v5.  Increasing period to 30
WARNING: Node NC_12 is floating.

Direct Newton iteration failed to find .op point.  (Use ".option noopiter" to skip.)
Starting Gmin stepping
Gmin = 10
Gmin = 1.07374
Gmin = 0.115292
Gmin = 0.0123794
Gmin = 0.00132923
Gmin = 0.000142725
Gmin = 1.5325e-005
Gmin = 1.6455e-006
Gmin = 1.76685e-007
Gmin = 1.89714e-008
Gmin = 2.03704e-009
Gmin = 2.18725e-010
Gmin = 2.34854e-011
Gmin = 2.52173e-012
Gmin = 2.70769e-013
Gmin = 0
Gmin stepping succeeded in finding the operating point.

Ignoring empty pin current: Ix(u1:5)
Ignoring empty pin current: Ix(u1:6)
Ignoring empty pin current: Ix(u1:7)
Ignoring empty pin current: Ix(u1:8)
Ignoring empty pin current: Ix(u1:9)
Ignoring empty pin current: Ix(u1:10)
Ignoring empty pin current: Ix(u1:11)
Ignoring empty pin current: Ix(u1:12)
Ignoring empty pin current: Ix(u1:5)
Ignoring empty pin current: Ix(u1:6)
Ignoring empty pin current: Ix(u1:7)
Ignoring empty pin current: Ix(u1:8)
Ignoring empty pin current: Ix(u1:9)
Ignoring empty pin current: Ix(u1:10)
Ignoring empty pin current: Ix(u1:11)
Ignoring empty pin current: Ix(u1:12)
Heightened Def Con from 30 to 30

Date: Sun Jan 02 16:54:36 2022
Total elapsed time: 0.258 seconds.

tnom = 27
temp = 27
method = modified trap
totiter = 5384
traniter = 5009
tranpoints = 1723
accept = 1627
rejected = 97
matrix size = 45
fillins = 6
solver = Normal
Matrix Compiler1: 2.85 KB object code size  0.9/0.7/[0.2]
Matrix Compiler2: off  [0.4]/0.6/0.6

