Circuit: * J:\Julia\Documentos\SpaceBee\Electronics\Power\BreakBoard\BreakBoard.asc

WARNING: Specified period is not longer than the sum of Trise, Tfall, and Ton for v8.  Increasing period to 30
WARNING: Specified period is not longer than the sum of Trise, Tfall, and Ton for v7.  Increasing period to 30
WARNING: Specified period is not longer than the sum of Trise, Tfall, and Ton for v6.  Increasing period to 30
WARNING: Specified period is not longer than the sum of Trise, Tfall, and Ton for v5.  Increasing period to 30
Direct Newton iteration for .op point succeeded.

Date: Sat Jan 22 19:23:26 2022
Total elapsed time: 0.174 seconds.

tnom = 27
temp = 27
method = modified trap
totiter = 2732
traniter = 2704
tranpoints = 1349
accept = 1335
rejected = 14
matrix size = 33
fillins = 0
solver = Normal
Matrix Compiler1: 956 bytes object code size  0.3/0.1/[0.1]
Matrix Compiler2: off  [0.2]/0.2/0.3

