Circuit: * J:\Julia\Documentos\SpaceBee\Electronics\Power\BreakBoard\Draft1.asc

Direct Newton iteration for .op point succeeded.

Date: Sat Jan 22 19:33:41 2022
Total elapsed time: 0.144 seconds.

tnom = 27
temp = 27
method = modified trap
totiter = 2341
traniter = 2338
tranpoints = 1169
accept = 1166
rejected = 3
matrix size = 6
fillins = 0
solver = Normal
Matrix Compiler1: 146 bytes object code size  0.1/0.1/[0.1]
Matrix Compiler2: 320 bytes object code size  0.1/0.1/[0.1]

