Circuit: * J:\Julia\Documentos\SpaceBee\Electronics\Power\BreakBoard\Draft2.asc

No AC stimulus found:
     Set the value of a current or voltage source to "AC 1."
     to make it behave as a signal generator for AC analysis.
Direct Newton iteration for .op point succeeded.

Date: Sat Jan 22 19:40:19 2022
Total elapsed time: 0.069 seconds.

tnom = 27
temp = 27
method = trap
totiter = 28
traniter = 0
tranpoints = 0
accept = 0
rejected = 0
matrix size = 10
fillins = 0
solver = Normal
Matrix Compiler1:      15 opcodes
Matrix Compiler2: 570 bytes object code size
