Circuit: * J:\Julia\Documentos\SpaceBee\Electronics\Power\BreakBoard\PolarizacionMos.asc


Date: Sat Jan 22 19:43:53 2022
Total elapsed time: 0.134 seconds.

tnom = 27
temp = 27
method = trap
totiter = 428
traniter = 0
tranpoints = 0
accept = 0
rejected = 0
matrix size = 7
fillins = 0
solver = Normal
Matrix Compiler1: 160 bytes object code size  0.1/0.1/[0.1]
Matrix Compiler2: 419 bytes object code size  0.1/0.1/[0.0]

